<?xml version="1.0" encoding="UTF-8"?>

<!-- generated on 2025-04-19 21:06:49 by Eclipse SUMO netconvert Version 1.22.0
<netconvertConfiguration xmlns:xsi="http://www.w3.org/2001/XMLSchema-instance" xsi:noNamespaceSchemaLocation="http://sumo.dlr.de/xsd/netconvertConfiguration.xsd">

    <input>
        <osm-files value="D:\Traffic Intersection Throguhput Optimization\Cityflow-expt\OSMtoSUMO\map.osm"/>
    </input>

    <output>
        <output-file value="chiexpt.net.xml"/>
    </output>

    <projection>
        <proj.utm value="true"/>
    </projection>

</netconvertConfiguration>
-->

<net version="1.20" junctionCornerDetail="5" limitTurnSpeed="5.50" xmlns:xsi="http://www.w3.org/2001/XMLSchema-instance" xsi:noNamespaceSchemaLocation="http://sumo.dlr.de/xsd/net_file.xsd">

    <location netOffset="-448236.91,-4630400.15" convBoundary="0.00,0.00,542.31,1619.77" origBoundary="-87.623378,41.823815,-87.616849,41.838409" projParameter="+proj=utm +zone=16 +ellps=WGS84 +datum=WGS84 +units=m +no_defs"/>

    <type id="highway.footway" priority="1" numLanes="1" speed="2.78" allow="pedestrian" oneway="1" width="2.00"/>
    <type id="highway.residential" priority="3" numLanes="1" speed="13.89" disallow="tram rail_urban rail rail_electric rail_fast ship container cable_car subway aircraft wheelchair scooter drone" oneway="0"/>
    <type id="highway.secondary" priority="11" numLanes="1" speed="27.78" disallow="tram rail_urban rail rail_electric rail_fast ship container cable_car subway aircraft wheelchair scooter drone" oneway="0"/>
    <type id="highway.service" priority="1" numLanes="1" speed="5.56" allow="pedestrian delivery bicycle" oneway="0"/>
    <type id="highway.tertiary" priority="10" numLanes="1" speed="22.22" disallow="tram rail_urban rail rail_electric rail_fast ship container cable_car subway aircraft wheelchair scooter drone" oneway="0"/>

    <edge id=":10123013774_0" function="internal">
        <lane id=":10123013774_0_0" index="0" allow="pedestrian delivery bicycle" speed="5.56" length="5.00" shape="71.94,999.21 71.89,1004.21"/>
    </edge>
    <edge id=":10123013774_1" function="internal">
        <lane id=":10123013774_1_0" index="0" allow="pedestrian delivery bicycle" speed="3.65" length="1.44" shape="71.94,999.21 71.13,1000.40"/>
    </edge>
    <edge id=":10123013774_4" function="internal">
        <lane id=":10123013774_4_0" index="0" allow="pedestrian delivery bicycle" speed="3.65" length="3.23" shape="71.13,1000.40 70.33,1000.79 69.53,1000.38 68.74,999.18"/>
    </edge>
    <edge id=":10123013774_2" function="internal">
        <lane id=":10123013774_2_0" index="0" allow="pedestrian delivery bicycle" speed="5.56" length="5.00" shape="68.69,1004.18 68.74,999.18"/>
    </edge>
    <edge id=":10123013774_3" function="internal">
        <lane id=":10123013774_3_0" index="0" allow="pedestrian delivery bicycle" speed="3.65" length="1.44" shape="68.69,1004.18 69.50,1002.99"/>
    </edge>
    <edge id=":10123013774_5" function="internal">
        <lane id=":10123013774_5_0" index="0" allow="pedestrian delivery bicycle" speed="3.65" length="3.23" shape="69.50,1002.99 70.31,1002.59 71.10,1003.00 71.89,1004.21"/>
    </edge>
    <edge id=":10123013775_0" function="internal">
        <lane id=":10123013775_0_0" index="0" allow="pedestrian delivery bicycle" speed="5.56" length="5.03" shape="126.80,840.53 121.76,840.52"/>
    </edge>
    <edge id=":10123013775_1" function="internal">
        <lane id=":10123013775_1_0" index="0" allow="pedestrian delivery bicycle" speed="3.65" length="1.44" shape="126.80,840.53 125.60,839.73"/>
    </edge>
    <edge id=":10123013775_4" function="internal">
        <lane id=":10123013775_4_0" index="0" allow="pedestrian delivery bicycle" speed="3.65" length="3.23" shape="125.60,839.73 125.20,838.93 125.60,838.13 126.81,837.33"/>
    </edge>
    <edge id=":10123013775_2" function="internal">
        <lane id=":10123013775_2_0" index="0" allow="pedestrian delivery bicycle" speed="5.56" length="5.04" shape="121.77,837.32 126.81,837.33"/>
    </edge>
    <edge id=":10123013775_3" function="internal">
        <lane id=":10123013775_3_0" index="0" allow="pedestrian delivery bicycle" speed="3.65" length="1.44" shape="121.77,837.32 122.97,838.12"/>
    </edge>
    <edge id=":10123013775_5" function="internal">
        <lane id=":10123013775_5_0" index="0" allow="pedestrian delivery bicycle" speed="3.65" length="3.23" shape="122.97,838.12 123.37,838.92 122.97,839.72 121.76,840.52"/>
    </edge>
    <edge id=":10123013776_0" function="internal">
        <lane id=":10123013776_0_0" index="0" disallow="tram rail_urban rail rail_electric rail_fast ship container cable_car subway aircraft wheelchair scooter drone" speed="13.89" length="4.41" shape="343.52,1215.36 339.10,1215.34"/>
    </edge>
    <edge id=":10123013776_1" function="internal">
        <lane id=":10123013776_1_0" index="0" disallow="tram rail_urban rail rail_electric rail_fast ship container cable_car subway aircraft wheelchair scooter drone" speed="13.89" length="4.41" shape="339.12,1212.14 343.53,1212.16"/>
    </edge>
    <edge id=":10123013777_0" function="internal">
        <lane id=":10123013777_0_0" index="0" allow="pedestrian delivery bicycle" speed="5.56" length="5.06" shape="126.31,901.05 121.25,901.05"/>
    </edge>
    <edge id=":10123013777_1" function="internal">
        <lane id=":10123013777_1_0" index="0" allow="pedestrian delivery bicycle" speed="3.65" length="1.44" shape="126.31,901.05 125.11,900.25"/>
    </edge>
    <edge id=":10123013777_4" function="internal">
        <lane id=":10123013777_4_0" index="0" allow="pedestrian delivery bicycle" speed="3.65" length="3.23" shape="125.11,900.25 124.71,899.45 125.11,898.65 126.31,897.85"/>
    </edge>
    <edge id=":10123013777_2" function="internal">
        <lane id=":10123013777_2_0" index="0" allow="pedestrian delivery bicycle" speed="5.56" length="5.06" shape="121.25,897.85 126.31,897.85"/>
    </edge>
    <edge id=":10123013777_3" function="internal">
        <lane id=":10123013777_3_0" index="0" allow="pedestrian delivery bicycle" speed="3.65" length="1.44" shape="121.25,897.85 122.45,898.65"/>
    </edge>
    <edge id=":10123013777_5" function="internal">
        <lane id=":10123013777_5_0" index="0" allow="pedestrian delivery bicycle" speed="3.65" length="3.23" shape="122.45,898.65 122.85,899.45 122.45,900.25 121.25,901.05"/>
    </edge>
    <edge id=":10123013778_0" function="internal">
        <lane id=":10123013778_0_0" index="0" allow="pedestrian delivery bicycle" speed="5.56" length="5.01" shape="383.48,1202.90 383.44,1207.91"/>
    </edge>
    <edge id=":10123013778_1" function="internal">
        <lane id=":10123013778_1_0" index="0" allow="pedestrian delivery bicycle" speed="3.65" length="1.44" shape="383.48,1202.90 382.67,1204.09"/>
    </edge>
    <edge id=":10123013778_4" function="internal">
        <lane id=":10123013778_4_0" index="0" allow="pedestrian delivery bicycle" speed="3.65" length="3.23" shape="382.67,1204.09 381.87,1204.49 381.07,1204.08 380.28,1202.87"/>
    </edge>
    <edge id=":10123013778_2" function="internal">
        <lane id=":10123013778_2_0" index="0" allow="pedestrian delivery bicycle" speed="5.56" length="5.01" shape="380.24,1207.88 380.28,1202.87"/>
    </edge>
    <edge id=":10123013778_3" function="internal">
        <lane id=":10123013778_3_0" index="0" allow="pedestrian delivery bicycle" speed="3.65" length="1.44" shape="380.24,1207.88 381.05,1206.69"/>
    </edge>
    <edge id=":10123013778_5" function="internal">
        <lane id=":10123013778_5_0" index="0" allow="pedestrian delivery bicycle" speed="3.65" length="3.23" shape="381.05,1206.69 381.85,1206.30 382.65,1206.70 383.44,1207.91"/>
    </edge>
    <edge id=":10123013779_0" function="internal">
        <lane id=":10123013779_0_0" index="0" disallow="tram rail_urban rail rail_electric rail_fast ship container cable_car subway aircraft wheelchair scooter drone" speed="13.89" length="4.31" shape="434.38,1203.34 434.34,1207.64"/>
    </edge>
    <edge id=":10123013779_1" function="internal">
        <lane id=":10123013779_1_0" index="0" disallow="tram rail_urban rail rail_electric rail_fast ship container cable_car subway aircraft wheelchair scooter drone" speed="13.89" length="4.30" shape="431.14,1207.62 431.18,1203.31"/>
    </edge>
    <edge id=":10123013780_0" function="internal">
        <lane id=":10123013780_0_0" index="0" allow="pedestrian delivery bicycle" speed="5.56" length="5.01" shape="182.05,1201.20 182.00,1206.21"/>
    </edge>
    <edge id=":10123013780_1" function="internal">
        <lane id=":10123013780_1_0" index="0" allow="pedestrian delivery bicycle" speed="3.65" length="1.44" shape="182.05,1201.20 181.24,1202.39"/>
    </edge>
    <edge id=":10123013780_4" function="internal">
        <lane id=":10123013780_4_0" index="0" allow="pedestrian delivery bicycle" speed="3.65" length="3.23" shape="181.24,1202.39 180.43,1202.78 179.64,1202.37 178.85,1201.16"/>
    </edge>
    <edge id=":10123013780_2" function="internal">
        <lane id=":10123013780_2_0" index="0" allow="pedestrian delivery bicycle" speed="5.56" length="5.02" shape="178.80,1206.18 178.85,1201.16"/>
    </edge>
    <edge id=":10123013780_3" function="internal">
        <lane id=":10123013780_3_0" index="0" allow="pedestrian delivery bicycle" speed="3.65" length="1.44" shape="178.80,1206.18 179.61,1204.99"/>
    </edge>
    <edge id=":10123013780_5" function="internal">
        <lane id=":10123013780_5_0" index="0" allow="pedestrian delivery bicycle" speed="3.65" length="3.23" shape="179.61,1204.99 180.42,1204.60 181.21,1205.00 182.00,1206.21"/>
    </edge>
    <edge id=":10123013781_0" function="internal">
        <lane id=":10123013781_0_0" index="0" allow="pedestrian delivery bicycle" speed="5.56" length="5.03" shape="181.88,1219.58 181.84,1224.61"/>
    </edge>
    <edge id=":10123013781_1" function="internal">
        <lane id=":10123013781_1_0" index="0" allow="pedestrian delivery bicycle" speed="3.65" length="1.44" shape="181.88,1219.58 181.07,1220.77"/>
    </edge>
    <edge id=":10123013781_4" function="internal">
        <lane id=":10123013781_4_0" index="0" allow="pedestrian delivery bicycle" speed="3.65" length="3.23" shape="181.07,1220.77 180.27,1221.16 179.47,1220.75 178.68,1219.55"/>
    </edge>
    <edge id=":10123013781_2" function="internal">
        <lane id=":10123013781_2_0" index="0" allow="pedestrian delivery bicycle" speed="5.56" length="5.03" shape="178.64,1224.58 178.68,1219.55"/>
    </edge>
    <edge id=":10123013781_3" function="internal">
        <lane id=":10123013781_3_0" index="0" allow="pedestrian delivery bicycle" speed="3.65" length="1.44" shape="178.64,1224.58 179.45,1223.38"/>
    </edge>
    <edge id=":10123013781_5" function="internal">
        <lane id=":10123013781_5_0" index="0" allow="pedestrian delivery bicycle" speed="3.65" length="3.23" shape="179.45,1223.38 180.25,1222.99 181.05,1223.40 181.84,1224.61"/>
    </edge>
    <edge id=":10123013783_0" function="internal">
        <lane id=":10123013783_0_0" index="0" allow="pedestrian delivery bicycle" speed="5.56" length="5.01" shape="69.88,1201.12 69.83,1206.12"/>
    </edge>
    <edge id=":10123013783_1" function="internal">
        <lane id=":10123013783_1_0" index="0" allow="pedestrian delivery bicycle" speed="3.65" length="1.44" shape="69.88,1201.12 69.06,1202.31"/>
    </edge>
    <edge id=":10123013783_4" function="internal">
        <lane id=":10123013783_4_0" index="0" allow="pedestrian delivery bicycle" speed="3.65" length="3.23" shape="69.06,1202.31 68.26,1202.70 67.47,1202.29 66.68,1201.08"/>
    </edge>
    <edge id=":10123013783_2" function="internal">
        <lane id=":10123013783_2_0" index="0" allow="pedestrian delivery bicycle" speed="5.56" length="5.01" shape="66.63,1206.09 66.68,1201.08"/>
    </edge>
    <edge id=":10123013783_3" function="internal">
        <lane id=":10123013783_3_0" index="0" allow="pedestrian delivery bicycle" speed="3.65" length="1.44" shape="66.63,1206.09 67.44,1204.90"/>
    </edge>
    <edge id=":10123013783_5" function="internal">
        <lane id=":10123013783_5_0" index="0" allow="pedestrian delivery bicycle" speed="3.65" length="3.23" shape="67.44,1204.90 68.24,1204.50 69.04,1204.91 69.83,1206.12"/>
    </edge>
    <edge id=":10123013784_0" function="internal">
        <lane id=":10123013784_0_0" index="0" disallow="tram rail_urban rail rail_electric rail_fast ship container cable_car subway aircraft wheelchair scooter drone" speed="13.89" length="4.40" shape="334.06,1202.52 334.03,1206.92"/>
    </edge>
    <edge id=":10123013784_1" function="internal">
        <lane id=":10123013784_1_0" index="0" disallow="tram rail_urban rail rail_electric rail_fast ship container cable_car subway aircraft wheelchair scooter drone" speed="13.89" length="4.40" shape="330.83,1206.89 330.86,1202.50"/>
    </edge>
    <edge id=":10123013786_0" function="internal">
        <lane id=":10123013786_0_0" index="0" disallow="tram rail_urban rail rail_electric rail_fast ship container cable_car subway aircraft wheelchair scooter drone" speed="13.89" length="4.68" shape="444.45,1215.96 439.77,1215.93"/>
    </edge>
    <edge id=":10123013786_1" function="internal">
        <lane id=":10123013786_1_0" index="0" disallow="tram rail_urban rail rail_electric rail_fast ship container cable_car subway aircraft wheelchair scooter drone" speed="13.89" length="4.68" shape="439.79,1212.73 444.47,1212.76"/>
    </edge>
    <edge id=":10123013787_0" function="internal">
        <lane id=":10123013787_0_0" index="0" allow="pedestrian delivery bicycle" speed="5.56" length="5.01" shape="346.54,857.86 341.53,857.78"/>
    </edge>
    <edge id=":10123013787_1" function="internal">
        <lane id=":10123013787_1_0" index="0" allow="pedestrian delivery bicycle" speed="3.65" length="1.44" shape="346.54,857.86 345.35,857.04"/>
    </edge>
    <edge id=":10123013787_4" function="internal">
        <lane id=":10123013787_4_0" index="0" allow="pedestrian delivery bicycle" speed="3.65" length="3.23" shape="345.35,857.04 344.96,856.24 345.37,855.44 346.59,854.66"/>
    </edge>
    <edge id=":10123013787_2" function="internal">
        <lane id=":10123013787_2_0" index="0" allow="pedestrian delivery bicycle" speed="5.56" length="5.01" shape="341.58,854.59 346.59,854.66"/>
    </edge>
    <edge id=":10123013787_3" function="internal">
        <lane id=":10123013787_3_0" index="0" allow="pedestrian delivery bicycle" speed="3.65" length="1.44" shape="341.58,854.59 342.77,855.40"/>
    </edge>
    <edge id=":10123013787_5" function="internal">
        <lane id=":10123013787_5_0" index="0" allow="pedestrian delivery bicycle" speed="3.65" length="3.23" shape="342.77,855.40 343.15,856.21 342.74,857.00 341.53,857.78"/>
    </edge>
    <edge id=":10123013788_0" function="internal">
        <lane id=":10123013788_0_0" index="0" disallow="tram rail_urban rail rail_electric rail_fast ship container cable_car subway aircraft wheelchair scooter drone" speed="13.89" length="0.30" shape="19.73,1213.47 19.44,1213.47"/>
    </edge>
    <edge id=":10123013788_1" function="internal">
        <lane id=":10123013788_1_0" index="0" disallow="tram rail_urban rail rail_electric rail_fast ship container cable_car subway aircraft wheelchair scooter drone" speed="13.89" length="0.30" shape="19.45,1210.27 19.75,1210.27"/>
    </edge>
    <edge id=":10123013791_0" function="internal">
        <lane id=":10123013791_0_0" index="0" allow="pedestrian delivery bicycle" speed="5.56" length="5.00" shape="445.44,1089.63 440.44,1089.59"/>
    </edge>
    <edge id=":10123013792_0" function="internal">
        <lane id=":10123013792_0_0" index="0" allow="pedestrian delivery bicycle" speed="5.56" length="5.06" shape="447.23,870.77 442.18,870.77"/>
    </edge>
    <edge id=":10123013792_1" function="internal">
        <lane id=":10123013792_1_0" index="0" allow="pedestrian delivery bicycle" speed="3.65" length="1.44" shape="447.23,870.77 446.03,869.98"/>
    </edge>
    <edge id=":10123013792_4" function="internal">
        <lane id=":10123013792_4_0" index="0" allow="pedestrian delivery bicycle" speed="3.65" length="3.23" shape="446.03,869.98 445.63,869.18 446.03,868.38 447.23,867.57"/>
    </edge>
    <edge id=":10123013792_2" function="internal">
        <lane id=":10123013792_2_0" index="0" allow="pedestrian delivery bicycle" speed="5.56" length="5.05" shape="442.18,867.57 447.23,867.57"/>
    </edge>
    <edge id=":10123013792_3" function="internal">
        <lane id=":10123013792_3_0" index="0" allow="pedestrian delivery bicycle" speed="3.65" length="1.44" shape="442.18,867.57 443.38,868.38"/>
    </edge>
    <edge id=":10123013792_5" function="internal">
        <lane id=":10123013792_5_0" index="0" allow="pedestrian delivery bicycle" speed="3.65" length="3.23" shape="443.38,868.38 443.78,869.18 443.38,869.98 442.18,870.77"/>
    </edge>
    <edge id=":10123013793_0" function="internal">
        <lane id=":10123013793_0_0" index="0" allow="pedestrian delivery bicycle" speed="5.56" length="4.69" shape="446.05,953.92 441.37,953.67"/>
    </edge>
    <edge id=":10123013793_1" function="internal">
        <lane id=":10123013793_1_0" index="0" allow="pedestrian delivery bicycle" speed="3.65" length="1.44" shape="446.05,953.92 444.90,953.06"/>
    </edge>
    <edge id=":10123013793_4" function="internal">
        <lane id=":10123013793_4_0" index="0" allow="pedestrian delivery bicycle" speed="3.65" length="3.23" shape="444.90,953.06 444.54,952.24 444.98,951.46 446.22,950.72"/>
    </edge>
    <edge id=":10123013793_2" function="internal">
        <lane id=":10123013793_2_0" index="0" allow="pedestrian delivery bicycle" speed="5.56" length="4.73" shape="441.50,950.48 446.22,950.72"/>
    </edge>
    <edge id=":10123013793_3" function="internal">
        <lane id=":10123013793_3_0" index="0" allow="pedestrian delivery bicycle" speed="3.65" length="1.44" shape="441.50,950.48 442.66,951.32"/>
    </edge>
    <edge id=":10123013793_5" function="internal">
        <lane id=":10123013793_5_0" index="0" allow="pedestrian delivery bicycle" speed="3.65" length="3.23" shape="442.66,951.32 443.03,952.14 442.60,952.92 441.37,953.67"/>
    </edge>
    <edge id=":10123013794_0" function="internal">
        <lane id=":10123013794_0_0" index="0" allow="pedestrian delivery bicycle" speed="5.56" length="5.04" shape="445.08,1136.54 440.04,1136.56"/>
    </edge>
    <edge id=":10123013795_0" function="internal">
        <lane id=":10123013795_0_0" index="0" allow="pedestrian delivery bicycle" speed="5.56" length="5.04" shape="440.29,1105.27 445.33,1105.25"/>
    </edge>
    <edge id=":10123013796_0" function="internal">
        <lane id=":10123013796_0_0" index="0" allow="pedestrian delivery bicycle" speed="5.56" length="5.02" shape="326.61,1132.34 321.59,1132.29"/>
    </edge>
    <edge id=":10123013796_1" function="internal">
        <lane id=":10123013796_1_0" index="0" allow="pedestrian delivery bicycle" speed="3.65" length="1.44" shape="326.61,1132.34 325.42,1131.53"/>
    </edge>
    <edge id=":10123013796_4" function="internal">
        <lane id=":10123013796_4_0" index="0" allow="pedestrian delivery bicycle" speed="3.65" length="3.23" shape="325.42,1131.53 325.03,1130.73 325.44,1129.93 326.65,1129.15"/>
    </edge>
    <edge id=":10123013796_2" function="internal">
        <lane id=":10123013796_2_0" index="0" allow="pedestrian delivery bicycle" speed="5.56" length="5.02" shape="321.63,1129.09 326.65,1129.15"/>
    </edge>
    <edge id=":10123013796_3" function="internal">
        <lane id=":10123013796_3_0" index="0" allow="pedestrian delivery bicycle" speed="3.65" length="1.44" shape="321.63,1129.09 322.82,1129.90"/>
    </edge>
    <edge id=":10123013796_5" function="internal">
        <lane id=":10123013796_5_0" index="0" allow="pedestrian delivery bicycle" speed="3.65" length="3.23" shape="322.82,1129.90 323.21,1130.71 322.80,1131.50 321.59,1132.29"/>
    </edge>
    <edge id=":10123013798_0" function="internal">
        <lane id=":10123013798_0_0" index="0" disallow="tram rail_urban rail rail_electric rail_fast ship container cable_car subway aircraft wheelchair scooter drone" speed="13.89" length="4.23" shape="123.01,1214.09 118.78,1214.06"/>
    </edge>
    <edge id=":10123013798_1" function="internal">
        <lane id=":10123013798_1_0" index="0" disallow="tram rail_urban rail rail_electric rail_fast ship container cable_car subway aircraft wheelchair scooter drone" speed="13.89" length="4.23" shape="118.80,1210.86 123.03,1210.89"/>
    </edge>
    <edge id=":10123013799_0" function="internal">
        <lane id=":10123013799_0_0" index="0" disallow="tram rail_urban rail rail_electric rail_fast ship container cable_car subway aircraft wheelchair scooter drone" speed="13.89" length="4.52" shape="233.47,1201.76 233.43,1206.28"/>
    </edge>
    <edge id=":10123013799_1" function="internal">
        <lane id=":10123013799_1_0" index="0" disallow="tram rail_urban rail rail_electric rail_fast ship container cable_car subway aircraft wheelchair scooter drone" speed="13.89" length="4.52" shape="230.23,1206.25 230.27,1201.73"/>
    </edge>
    <edge id=":10123013802_0" function="internal">
        <lane id=":10123013802_0_0" index="0" disallow="tram rail_urban rail rail_electric rail_fast ship container cable_car subway aircraft wheelchair scooter drone" speed="13.89" length="5.15" shape="125.49,1013.19 120.34,1013.10"/>
    </edge>
    <edge id=":10123013802_1" function="internal">
        <lane id=":10123013802_1_0" index="0" disallow="tram rail_urban rail rail_electric rail_fast ship container cable_car subway aircraft wheelchair scooter drone" speed="13.89" length="5.15" shape="120.39,1009.90 125.54,1009.99"/>
    </edge>
    <edge id=":10123013803_0" function="internal">
        <lane id=":10123013803_0_0" index="0" disallow="tram rail_urban rail rail_electric rail_fast ship container cable_car subway aircraft wheelchair scooter drone" speed="13.89" length="5.17" shape="24.34,1011.53 19.17,1011.45"/>
    </edge>
    <edge id=":10123013803_1" function="internal">
        <lane id=":10123013803_1_0" index="0" disallow="tram rail_urban rail rail_electric rail_fast ship container cable_car subway aircraft wheelchair scooter drone" speed="13.89" length="5.17" shape="19.22,1008.25 24.39,1008.33"/>
    </edge>
    <edge id=":10123013804_0" function="internal">
        <lane id=":10123013804_0_0" index="0" disallow="tram rail_urban rail rail_electric rail_fast ship container cable_car subway aircraft wheelchair scooter drone" speed="13.89" length="3.47" shape="141.89,1214.19 138.41,1214.17"/>
    </edge>
    <edge id=":10123013804_1" function="internal">
        <lane id=":10123013804_1_0" index="0" disallow="tram rail_urban rail rail_electric rail_fast ship container cable_car subway aircraft wheelchair scooter drone" speed="13.89" length="3.47" shape="138.43,1210.97 141.91,1210.99"/>
    </edge>
    <edge id=":10123013805_0" function="internal">
        <lane id=":10123013805_0_0" index="0" allow="pedestrian delivery bicycle" speed="5.56" length="5.01" shape="71.76,1017.13 71.71,1022.14"/>
    </edge>
    <edge id=":10123013805_1" function="internal">
        <lane id=":10123013805_1_0" index="0" allow="pedestrian delivery bicycle" speed="3.65" length="1.44" shape="71.76,1017.13 70.95,1018.32"/>
    </edge>
    <edge id=":10123013805_4" function="internal">
        <lane id=":10123013805_4_0" index="0" allow="pedestrian delivery bicycle" speed="3.65" length="3.23" shape="70.95,1018.32 70.14,1018.71 69.35,1018.31 68.56,1017.10"/>
    </edge>
    <edge id=":10123013805_2" function="internal">
        <lane id=":10123013805_2_0" index="0" allow="pedestrian delivery bicycle" speed="5.56" length="5.01" shape="68.51,1022.11 68.56,1017.10"/>
    </edge>
    <edge id=":10123013805_3" function="internal">
        <lane id=":10123013805_3_0" index="0" allow="pedestrian delivery bicycle" speed="3.65" length="1.44" shape="68.51,1022.11 69.32,1020.92"/>
    </edge>
    <edge id=":10123013805_5" function="internal">
        <lane id=":10123013805_5_0" index="0" allow="pedestrian delivery bicycle" speed="3.65" length="3.23" shape="69.32,1020.92 70.12,1020.52 70.92,1020.93 71.71,1022.14"/>
    </edge>
    <edge id=":10123013812_0" function="internal">
        <lane id=":10123013812_0_0" index="0" disallow="tram rail_urban rail rail_electric rail_fast ship container cable_car subway aircraft wheelchair scooter drone" speed="13.89" length="4.53" shape="325.48,1215.25 320.95,1215.23"/>
    </edge>
    <edge id=":10123013812_1" function="internal">
        <lane id=":10123013812_1_0" index="0" disallow="tram rail_urban rail rail_electric rail_fast ship container cable_car subway aircraft wheelchair scooter drone" speed="13.89" length="4.53" shape="320.97,1212.03 325.50,1212.05"/>
    </edge>
    <edge id=":10123013816_0" function="internal">
        <lane id=":10123013816_0_0" index="0" disallow="tram rail_urban rail rail_electric rail_fast ship container cable_car subway aircraft wheelchair scooter drone" speed="22.22" length="5.06" shape="134.37,1200.65 134.33,1205.70"/>
        <lane id=":10123013816_0_1" index="1" disallow="tram rail_urban rail rail_electric rail_fast ship container cable_car subway aircraft wheelchair scooter drone" speed="22.22" length="5.06" shape="131.17,1200.62 131.13,1205.68"/>
        <lane id=":10123013816_0_2" index="2" disallow="tram rail_urban rail rail_electric rail_fast ship container cable_car subway aircraft wheelchair scooter drone" speed="22.22" length="5.06" shape="127.97,1200.59 127.93,1205.66"/>
    </edge>
    <edge id=":10123026017_0" function="internal">
        <lane id=":10123026017_0_0" index="0" disallow="tram rail_urban rail rail_electric rail_fast ship container cable_car subway aircraft wheelchair scooter drone" speed="22.22" length="5.07" shape="136.07,1017.86 136.02,1022.94"/>
        <lane id=":10123026017_0_1" index="1" disallow="tram rail_urban rail rail_electric rail_fast ship container cable_car subway aircraft wheelchair scooter drone" speed="22.22" length="5.07" shape="132.87,1017.83 132.82,1022.91"/>
        <lane id=":10123026017_0_2" index="2" disallow="tram rail_urban rail rail_electric rail_fast ship container cable_car subway aircraft wheelchair scooter drone" speed="22.22" length="5.07" shape="129.67,1017.80 129.62,1022.88"/>
    </edge>
    <edge id=":10123026018_0" function="internal">
        <lane id=":10123026018_0_0" index="0" disallow="tram rail_urban rail rail_electric rail_fast ship container cable_car subway aircraft wheelchair scooter drone" speed="22.22" length="5.31" shape="136.24,999.89 136.19,1005.20"/>
        <lane id=":10123026018_0_1" index="1" disallow="tram rail_urban rail rail_electric rail_fast ship container cable_car subway aircraft wheelchair scooter drone" speed="22.22" length="5.31" shape="133.04,999.86 132.99,1005.17"/>
        <lane id=":10123026018_0_2" index="2" disallow="tram rail_urban rail rail_electric rail_fast ship container cable_car subway aircraft wheelchair scooter drone" speed="22.22" length="5.31" shape="129.84,999.83 129.79,1005.14"/>
    </edge>
    <edge id=":10123026019_0" function="internal">
        <lane id=":10123026019_0_0" index="0" allow="pedestrian delivery bicycle" speed="5.56" length="4.52" shape="141.14,769.04 145.66,769.11"/>
    </edge>
    <edge id=":10123026068_0" function="internal">
        <lane id=":10123026068_0_0" index="0" allow="pedestrian delivery bicycle" speed="5.56" length="15.02" shape="156.10,772.72 156.06,787.74"/>
    </edge>
    <edge id=":10123026068_1" function="internal">
        <lane id=":10123026068_1_0" index="0" allow="pedestrian delivery bicycle" speed="3.65" length="1.44" shape="156.10,772.72 155.30,773.92"/>
    </edge>
    <edge id=":10123026068_4" function="internal">
        <lane id=":10123026068_4_0" index="0" allow="pedestrian delivery bicycle" speed="3.65" length="3.23" shape="155.30,773.92 154.50,774.32 153.70,773.92 152.90,772.71"/>
    </edge>
    <edge id=":10123026068_2" function="internal">
        <lane id=":10123026068_2_0" index="0" allow="pedestrian delivery bicycle" speed="5.56" length="15.01" shape="152.86,787.73 152.90,772.71"/>
    </edge>
    <edge id=":10123026068_3" function="internal">
        <lane id=":10123026068_3_0" index="0" allow="pedestrian delivery bicycle" speed="3.65" length="1.44" shape="152.86,787.73 153.66,786.53"/>
    </edge>
    <edge id=":10123026068_5" function="internal">
        <lane id=":10123026068_5_0" index="0" allow="pedestrian delivery bicycle" speed="3.65" length="3.23" shape="153.66,786.53 154.46,786.13 155.26,786.54 156.06,787.74"/>
    </edge>
    <edge id=":10125379429_0" function="internal">
        <lane id=":10125379429_0_0" index="0" disallow="tram rail_urban rail rail_electric rail_fast ship container cable_car subway aircraft wheelchair scooter drone" speed="13.89" length="4.15" shape="242.39,1214.77 238.24,1214.75"/>
    </edge>
    <edge id=":10125379429_1" function="internal">
        <lane id=":10125379429_1_0" index="0" disallow="tram rail_urban rail rail_electric rail_fast ship container cable_car subway aircraft wheelchair scooter drone" speed="13.89" length="4.16" shape="238.25,1211.55 242.41,1211.57"/>
    </edge>
    <edge id=":10125379430_0" function="internal">